CIY
  CCTOOLS-0919241038

 23 23  0  0  0  0  0  0  0  0999 V2000
   -0.5020    0.0820   -0.0040 C   0  0  0  0  0
    0.6530    0.8750   -0.0020 C   0  0  0  0  0
    1.8960    0.2760   -0.0080 C   0  0  0  0  0
    3.0200    1.0430   -0.0060 O   0  0  0  0  0
    2.0010   -1.1150   -0.0170 C   0  0  0  0  0
    3.2260   -1.7010   -0.0230 O   0  0  0  0  0
    0.8570   -1.9020   -0.0190 C   0  0  0  0  0
   -0.3880   -1.3130   -0.0070 C   0  0  0  0  0
   -1.8280    0.7130    0.0030 C   0  0  0  0  0
   -2.9440   -0.0560    0.0010 C   0  0  0  0  0
   -4.2160    0.5480    0.0080 C   0  0  0  0  0
   -5.2160   -0.1410    0.0060 O   0  0  0  0  0
    2.8380    2.4600    0.0040 C   0  0  0  0  0
    0.5710    1.9520    0.0040 H   0  0  0  0  0
    3.5820   -1.8770    0.8580 H   0  0  0  0  0
    0.9440   -2.9780   -0.0250 H   0  0  0  0  0
   -1.2760   -1.9280   -0.0090 H   0  0  0  0  0
   -1.9140    1.7890    0.0100 H   0  0  0  0  0
   -2.8580   -1.1330   -0.0060 H   0  0  0  0  0
   -4.3020    1.6250    0.0150 H   0  0  0  0  0
    2.2840    2.7500    0.8970 H   0  0  0  0  0
    3.8110    2.9510    0.0050 H   0  0  0  0  0
    2.2810    2.7610   -0.8830 H   0  0  0  0  0
  1  9  1  0  0  0
  2  1  1  0  0  0
  2 14  1  0  0  0
  3  2  2  0  0  0
  4  3  1  0  0  0
  4 13  1  0  0  0
  5  3  1  0  0  0
  5  7  2  0  0  0
  6  5  1  0  0  0
  6 15  1  0  0  0
  7  8  1  0  0  0
  7 16  1  0  0  0
  8  1  2  0  0  0
  8 17  1  0  0  0
  9 10  2  0  0  0
  9 18  1  0  0  0
 10 11  1  0  0  0
 10 19  1  0  0  0
 11 12  2  0  0  0
 11 20  1  0  0  0
 13 21  1  0  0  0
 13 22  1  0  0  0
 13 23  1  0  0  0
M  END
$$$$
